data_block_1
_audit_creation_date         'Sun Nov  4 19:00:03 2018'
_audit_creation_method       'generated by GDIS v0.90'


_cell_length_a              8.9720
_cell_length_b             21.7190
_cell_length_c             22.5560
_cell_angle_alpha          88.93
_cell_angle_beta           96.28
_cell_angle_gamma          93.06


_symmetry_space_group_name_H-M   'P 1'
_symmetry_Int_Tables_number       1


loop_
_atom_site_label
_atom_site_fract_x
_atom_site_fract_y
_atom_site_fract_z
 H    0.0767    0.3912    0.2973
 O    0.0579    0.2850    0.2598
Cl    0.2154    0.7906    0.6476
 O    0.9838    0.7919    0.8196
Al    0.1714    0.2041    0.2486
Al    0.6348    0.1971    0.2619
 O    0.4744    0.1386    0.2921
 C    0.3187    0.9923    0.2270
 H    0.2145    0.0077    0.2035
 C    0.4176    0.0349    0.2593
 C    0.5517    0.0149    0.2898
 H    0.6290    0.0482    0.3141
 C    0.3832    0.1005    0.2616
 O    0.2587    0.1180    0.2358
 O    0.8235    0.2457    0.2359
 O    0.5746    0.2607    0.3229
 O    0.5068    0.2326    0.1869
Al    0.6200    0.6922    0.2551
 C    0.7226    0.5405    0.2561
 C    0.6217    0.6989    0.1016
 N    0.5669    0.7510    0.3187
 C    0.5918    0.6810    0.4070
 N    0.6657    0.6317    0.1913
 N    0.5758    0.7581    0.1905
 N    0.6581    0.6250    0.3196
 C    0.7161    0.3672    0.2342
 H    0.6390    0.3303    0.2157
 C    0.6705    0.4275    0.2340
 H    0.5568    0.4378    0.2158
 C    0.7696    0.4755    0.2571
 C    0.9154    0.4617    0.2810
 H    0.9928    0.4988    0.2991
 C    0.9623    0.4017    0.2804
 C    0.8630    0.3540    0.2568
 C    0.5452    0.8187    0.1997
 C    0.5800    0.6772    0.4724
 C    0.5229    0.8440    0.2549
 C    0.5600    0.7378    0.3785
 C    0.6186    0.7017    0.0354
 C    0.4846    0.7135    0.9995
 H    0.3832    0.7199    0.0207
 C    0.7484    0.6932    0.0074
 H    0.8532    0.6845    0.0348
 C    0.6984    0.5656    0.3111
 C    0.5189    0.7919    0.4080
 H    0.5065    0.7948    0.4551
 C    0.5413    0.8526    0.1439
 H    0.5234    0.9014    0.1383
 C    0.6575    0.6427    0.1306
 C    0.6904    0.5874    0.1009
 H    0.6893    0.5824    0.0531
 C    0.3534    0.9308    0.2250
 H    0.2759    0.8977    0.2002
 C    0.5852    0.9532    0.2880
 H    0.6896    0.9378    0.3115
 C    0.4870    0.9102    0.2557
 C    0.5002    0.8373    0.3656
 H    0.4675    0.8839    0.3716
 C    0.6653    0.5704    0.4087
 H    0.6546    0.5603    0.4554
 C    0.5312    0.8118    0.3098
 C    0.7042    0.5712    0.2006
 C    0.5884    0.7528    0.1303
 C    0.5649    0.6830    0.5958
 C    0.7037    0.5314    0.3668
 H    0.7302    0.4833    0.3725
 C    0.6374    0.6289    0.3792
 C    0.5671    0.8119    0.1011
 H    0.5739    0.8215    0.0541
 C    0.7213    0.5436    0.1441
 H    0.7519    0.4967    0.1383
 C    0.7031    0.6759    0.5736
 H    0.8047    0.6751    0.6047
 C    0.7102    0.6726    0.5126
 H    0.8181    0.6688    0.4953
 C    0.4333    0.6844    0.5562
 H    0.3269    0.6904    0.5739
 C    0.4413    0.6817    0.4950
 H    0.3398    0.6847    0.4640
Cl    0.2848    0.8405    0.7975
 O    0.4340    0.6944    0.6805
 O    0.6901    0.7119    0.6875
 C    0.5611    0.6973    0.6599
 C    0.9161    0.2908    0.2520
Al    0.8265    0.7533    0.7541
 O    0.9255    0.8022    0.6874
Al    0.3632    0.7603    0.7370
 O    0.9409    0.6729    0.7433
 O    0.7391    0.8401    0.7673
 O    0.7334    0.7115    0.8229
 C    0.4804    0.7171    0.9377
 H    0.3773    0.7271    0.9099
 C    0.6109    0.7090    0.9102
 C    0.7450    0.6968    0.9456
 H    0.8462    0.6912    0.9241
 O    0.4827    0.7296    0.8162
 C    0.6077    0.7177    0.8444
 C    0.5155    0.2408    0.0635
 H    0.6177    0.2306    0.0919
 C    0.3835    0.2484    0.0901
 C    0.2506    0.2607    0.0539
 H    0.1482    0.2659    0.0747
 C    0.3823    0.2391    0.1557
 O    0.2507    0.2396    0.1740
Al    0.3717    0.2657    0.7448
 C    0.2750    0.4176    0.7441
 C    0.3782    0.2595    0.8988
 N    0.4175    0.2053    0.6810
 C    0.3939    0.2753    0.5925
 N    0.3333    0.3266    0.8090
 N    0.4170    0.1993    0.8096
 N    0.3333    0.3324    0.6801
 C    0.2821    0.5907    0.7666
 H    0.3591    0.6275    0.7851
 C    0.3278    0.5305    0.7665
 H    0.4415    0.5201    0.7847
 C    0.2285    0.4826    0.7432
 C    0.0828    0.4965    0.7193
 H    0.0056    0.4594    0.7009
 C    0.0359    0.5564    0.7201
 C    0.1353    0.6040    0.7440
 C    0.4465    0.1386    0.8005
 C    0.4096    0.2791    0.5274
 C    0.4659    0.1128    0.7452
 C    0.4226    0.2183    0.6210
 C    0.3810    0.2566    0.9651
 C    0.5137    0.2448    0.0017
 H    0.6163    0.2385    0.9812
 C    0.2498    0.2649    0.9922
 H    0.1459    0.2736    0.9643
 C    0.2966    0.3922    0.6890
 C    0.4613    0.1638    0.5914
 H    0.4716    0.1603    0.5442
 C    0.4527    0.1051    0.8566
 H    0.4698    0.0562    0.8624
 C    0.3432    0.3157    0.8698
 C    0.3119    0.3712    0.8995
 H    0.3144    0.3763    0.9474
 C    0.6376    0.0271    0.7765
 H    0.7125    0.0606    0.8019
 C    0.4099    0.0034    0.7114
 H    0.3059    0.0182    0.6871
 C    0.5045    0.0469    0.7447
 C    0.4818    0.1186    0.6340
 H    0.5143    0.0720    0.6278
 C    0.3280    0.3871    0.5912
 H    0.3392    0.3974    0.5446
 C    0.4536    0.1446    0.6900
 C    0.2951    0.3871    0.7997
 C    0.4081    0.2052    0.8700
 C    0.4354    0.2740    0.4044
 C    0.2924    0.4265    0.6334
 H    0.2689    0.4749    0.6278
 C    0.3524    0.3282    0.6204
 C    0.4297    0.1461    0.8994
 H    0.4250    0.1370    0.9466
 C    0.2800    0.4149    0.8563
 H    0.2499    0.4619    0.8622
 C    0.2973    0.2860    0.4247
 H    0.2000    0.2926    0.3921
 C    0.2847    0.2886    0.4855
 H    0.1765    0.2962    0.5011
 C    0.5622    0.2678    0.4459
 H    0.6686    0.2584    0.4297
 C    0.5490    0.2704    0.5066
 H    0.6467    0.2641    0.5389
Cl    0.7826    0.1593    0.3481
 O    0.1759    0.7123    0.7640
 O    0.3178    0.2502    0.3093
 C    0.4449    0.2607    0.3404
 C    0.0825    0.6671    0.7492
 O    0.0928    0.1631    0.3264
 O    0.5256    0.8197    0.7083
 C    0.6749    0.9659    0.7749
 H    0.7783    0.9510    0.7995
 C    0.5796    0.9228    0.7415
 C    0.4465    0.9422    0.7097
 H    0.3723    0.9084    0.6844
 C    0.6151    0.8573    0.7399
 H    0.9217    0.5671    0.7031
Cl    0.6935    0.1195    0.1947
 O    0.0083    0.1562    0.1942
 H    0.8956    0.1531    0.1979
 H    0.0413    0.1141    0.1928
 H    0.0916    0.8001    0.8097
 H    0.9490    0.8323    0.8287
 H    0.0307    0.7943    0.6756
 H    0.9241    0.8466    0.6935
 H    0.1407    0.1882    0.3595
 H    0.9797    0.1635    0.3299
